*Heading
** Job name: Job-3 Model name: Model-1
** Generated by: Abaqus/CAE 2024
*Preprint, echo=NO, model=NO, history=NO, contact=NO
**
** PARTS
**
*Part, name=Part-3
*Node
      1,  -33.0393219,        38.75,         100.
      2,  -133.039322,        38.75,           0.
      3,  -133.039322,        88.75,           0.
      4,  -33.0393219,        88.75,         100.
      5,  -33.0393219,       -11.25,         100.
      6,  -133.039322,       -11.25,           0.
      7,        43.75,        88.75,           0.
      8,        43.75,       -11.25,           0.
      9,      -103.75,        88.75,           0.
     10,      -108.75,        88.75,           0.
     11,        43.75,        88.75,         100.
     12,        43.75,       -11.25,         100.
     13,      -381.25,        51.25,         175.
     14,      -368.75,        51.25,         175.
     15,      -368.75,        51.25,         125.
     16,      -381.25,        51.25,         125.
     17,      -381.25,        51.25,         185.
     18,      -368.75,        51.25,         185.
     19,      -381.25,        26.25,         185.
     20,      -381.25,        26.25,         125.
** ... 88288 like lines cut
*Element, type=C3D10
    1,  5275,  5276,  5277,  5278, 12163, 12162, 12161, 12165, 12164, 12166
    2,  5279,  5280,  5281,  5282, 12169, 12168, 12167, 12171, 12170, 12172
    3,  5283,  5284,  5285,  5275, 12175, 12174, 12173, 12177, 12176, 12178
    4,  5275,  5286,  5287,  5288, 12181, 12180, 12179, 12183, 12182, 12184
    5,  5275,  5277,  5284,  5285, 12161, 12185, 12176, 12178, 12186, 12174
    6,  5279,  5282,  5289,  5290, 12171, 12188, 12187, 12190, 12189, 12191
    7,  5278,  5286,  5283,  5275, 12194, 12193, 12192, 12165, 12181, 12177
    8,  5291,  5292,  5293,  5294, 12197, 12196, 12195, 12199, 12198, 12200
    9,  5291,  5295,  5296,  5297, 12203, 12202, 12201, 12205, 12204, 12206
   10,  5291,  5294,  5298,  5292, 12199, 12208, 12207, 12197, 12198, 12209
   11,  5299,  5300,  5301,  5302, 12212, 12211, 12210, 12214, 12213, 12215
   12,  5299,  5300,  5303,  5301, 12212, 12217, 12216, 12210, 12211, 12218
   13,  5304,  1115,  1099,  1114, 12221, 12220, 12219, 12223, 12222, 12224
   14,  5303,  5299,  5305,  5306, 12216, 12226, 12225, 12228, 12227, 12229
   15,  5307,  5305,  5308,  5309, 12232, 12231, 12230, 12234, 12233, 12235
   16,  5305,  5308,  5309,  5299, 12231, 12235, 12233, 12226, 12236, 12237
   17,  5299,  5305,  5308,  5310, 12226, 12231, 12236, 12239, 12238, 12240
   18,  5299,  5305,  5306,  5309, 12226, 12229, 12227, 12237, 12233, 12241
   19,  5311,  5312,  5313,  5314, 12244, 12243, 12242, 12246, 12245, 12247
   20,  5312,  5314,  5311,  5315, 12245, 12246, 12244, 12249, 12248, 12250
** ... 59607 like lines cut
*Nset, nset="Edge Seeds-1"
     1,     2,     5,     6,    51,    52,    55,    56,    59,    62,    95,    96,    97,    98,    99,   100
   143,   144,   145,   146,   147,   148,   149,   150,   151,   152,   153,   154,   155,   156,   157,   158
   159,   160,   161,   162,   163,   164,   165,   166,   167,   542,   543,   544,   545,   546,   547,   548
   563,   564,   565,   566,   567,   568,   569,   570,   571,   572,   573,   574,   575,   576,   577,   578
   579,   580,   581,   582,   583,   584,   610,   611,   612,   613,   614,   615,   616,   651,   652,   653
   654,   655,   656,   657,   663,   664,   665,   666,   667,   668,   669,   670,   671,   672,   673,   674
   675,   676,   677,   866,   867,   868,   869,   870,   871,   872,   873,   874,   875,   876,   877,   878
   879,   880,   881,   882,   883,   884,   885,   886,   887,   888,   889,   890,   891,   892,   893,   894
   895,   896,   897,   898,   899,   900,   901,   902,   903,   904,   905,   906,   907,   908,   909,   910
   911,   912,   913,   914,   915,   916,   917,   918,   919,   920,   921,   922,   923,   924,   925,   926
   927,   928,   929,   930,   931,   932,   933,   934,   935,   936,   937,   938,   939,   940,   941,   942
   943,   944,   945,   946,   947,   948,   949,   950,   951,   952,   953,   954,  1009,  1010,  1011,  1012
  1013,  1014,  1015,  1016,  1017,  1018,  1019,  1020,  1021,  1022,  3253,  3254,  3255,  3256,  3257,  3258
  3259,  3260,  3261,  3262,  3263,  3264,  3265,  3266,  3267,  3268,  3269,  3270,  3271,  3272,  3273,  3274
  3275,  3276,  3277,  3278,  3279,  3280,  3281,  3282,  3283,  3284,  3285,  3286,  3287,  3288,  3289,  3290
  3291,  3292,  3293,  3294,  3295,  3296,  3297,  3298,  3299,  3300,  3301,  3302,  3303,  3304,  3305,  3306
  3307,  3308,  3309,  3310,  3311,  3312,  3313,  3314,  3315,  3316,  3317,  3318,  3319,  3320,  3321,  3322
  3323,  3324,  3325,  3326,  3327,  3328,  3329,  3330,  3331,  3332,  3333,  3334,  3335,  3336,  3337,  3338
  3339,  3340,  3341,  3342,  3343,  3344,  3345,  3346,  3347,  3348,  3349,  3350,  3351,  3352,  3353,  3354
  3355,  3356,  3357,  4066,  4067,  4068,  4069,  4070,  4071,  4072,  4073,  4074,  4075,  4076,  4077,  4078
** ... 504 like lines cut
*Elset, elset="Edge Seeds-1"
 36330, 36331, 36332, 36333, 36334, 36335, 36336, 36337, 36338, 36339, 36340, 36341, 36342, 36343, 36344, 36345
 36346, 36347, 36348, 36349, 36350, 36351, 36352, 36353, 36354, 36355, 36356, 36357, 36358, 36359, 36360, 36361
 36362, 36363, 36364, 36365, 36366, 36367, 36368, 36369, 36370, 36371, 36372, 36373, 36374, 36375, 36376, 36377
 36378, 36379, 36380, 36381, 36382, 36383, 36384, 36385, 36386, 36387, 36388, 36389, 36390, 36391, 36392, 36393
 36394, 36395, 36396, 36397, 36398, 36399, 36400, 36401, 36402, 36403, 36404, 36405, 36406, 36407, 36408, 36409
 36410, 36411, 36412, 36413, 36414, 36415, 36416, 36417, 36418, 36419, 36420, 36421, 36422, 36423, 36424, 36425
 36426, 36427, 36428, 36429, 36430, 36431, 36432, 36433, 36434, 36435, 36436, 36437, 36438, 36439, 36440, 36441
 36442, 36443, 36444, 36445, 36446, 36447, 36448, 36449, 36450, 36451, 36452, 36453, 36454, 36455, 36456, 36457
 36458, 36459, 36460, 36461, 36462, 36463, 36464, 36465, 36466, 36467, 36468, 36469, 36470, 36471, 36472, 36473
 36474, 36475, 36476, 36477, 36478, 36479, 36480, 36481, 36482, 36483, 36484, 36485, 36486, 36487, 36488, 36489
 36490, 36491, 36492, 36493, 36494, 36495, 36496, 36497, 36498, 36499, 36500, 36501, 36502, 36503, 36504, 36505
 36506, 36507, 36508, 36509, 36510, 36511, 36512, 36513, 36514, 36515, 36516, 36517, 36518, 36519, 36520, 36521
 36522, 36523, 36524, 36525, 36526, 36527, 36528, 36529, 36530, 36531, 36532, 36533, 36534, 36535, 36536, 36537
 36538, 36539, 36540, 36541, 36542, 36543, 36544, 36545, 36546, 36547, 36548, 36549, 36550, 36551, 36552, 36553
 36554, 36555, 36556, 36557, 36558, 36559, 36560, 36561, 36562, 36563, 36564, 36565, 36566, 36567, 36568, 36569
 36570, 36571, 36572, 36573, 36574, 36575, 36576, 36577, 36578, 36579, 36580, 36581, 36582, 36583, 36584, 36585
 36586, 36587, 36588, 36589, 36590, 36591, 36592, 36593, 36594, 36595, 36596, 36597, 36598, 36599, 36600, 36601
 36602, 36603, 36604, 36605, 36606, 36607, 36608, 36609, 36610, 36611, 36612, 36613, 36614, 36615, 36616, 36617
 36618, 36619, 36620, 36621, 36622, 36623, 36624, 36625, 36626, 36627, 36628, 36629, 36630, 36631, 36632, 36633
 36634, 36635, 36636, 36637, 36638, 36639, 36640, 36641, 36642, 36643, 36644, 36645, 36646, 36647, 36648, 36649
** ... 303 like lines cut
*Nset, nset=Set-33, generate
     1,  88308,      1
*Elset, elset=Set-33, generate
     1,  59627,      1
** Section: Section-1
*Solid Section, elset=Set-33, material=Material-1
,
*End Part
**  
**
** ASSEMBLY
**
*Assembly, name=Assembly
**  
*Instance, name=Part-3-1, part=Part-3
*End Instance
**  
*Nset, nset=left_left, instance=Part-3-1
 14,
*Nset, nset=left_right, instance=Part-3-1
 45,
*Nset, nset=right_r, instance=Part-3-1
 67,
*Nset, nset=right_right, instance=Part-3-1
 64,
*End Assembly
** 
** MATERIALS
** 
*Material, name=Material-1
*Density
7860.,
** ----------------------------------------------------------------
** 
** STEP: Step-1
** 
*Step, name=Step-1, nlgeom=NO
*Static
1., 1., 1e-05, 1.
** 
** BOUNDARY CONDITIONS
** 
** Name: BC-1 Type: Symmetry/Antisymmetry/Encastre
*Boundary
left_left, XSYMM
** Name: BC-2 Type: Symmetry/Antisymmetry/Encastre
*Boundary
left_right, XSYMM
** Name: BC-3 Type: Symmetry/Antisymmetry/Encastre
*Boundary
right_right, XSYMM
** Name: BC-4 Type: Symmetry/Antisymmetry/Encastre
*Boundary
right_r, XSYMM
** 
** OUTPUT REQUESTS
** 
*Restart, write, frequency=0
** 
** FIELD OUTPUT: F-Output-1
** 
*Output, field, variable=PRESELECT
** 
** HISTORY OUTPUT: H-Output-1
** 
*Output, history, variable=PRESELECT
*End Step
