*Heading
** Job name: Job-2 Model name: main
** Generated by: Abaqus/CAE 2024
*Preprint, echo=NO, model=NO, history=NO, contact=NO
**
** PARTS
**
*Part, name=main
*Node
      1,        43.75,       -11.25,           0.
      2,        43.75,       -11.25,         100.
      3,        43.75,        88.75,         100.
      4,        43.75,        88.75,           0.
      5,      -103.75,        88.75,           0.
      6,      -108.75,        88.75,           0.
      7,  -133.039322,        88.75,           0.
      8,  -33.0393219,        88.75,         100.
      9,  -133.039322,       -11.25,           0.
     10,  -133.039322,        38.75,           0.
     11,  -33.0393219,       -11.25,         100.
     12,  -33.0393219,        38.75,         100.
     13,      -356.25,       -11.25,           0.
     14,      -356.25,       -11.25,         100.
     15,      -381.25,       -11.25,         100.
     16,      -381.25,       -11.25,           0.
     17,      -356.25,        88.75,         100.
     18,      -381.25,        88.75,         100.
     19,      -381.25,        88.75,           0.
     20,      -356.25,        88.75,           0.
** ... 19616 like lines cut
*Element, type=C3D4
    1, 6910, 6911, 6912, 6913
    2, 6910, 6914, 6915, 6916
    3, 6910, 6917, 6918, 6919
    4, 6910, 6918, 6915, 6914
    5, 6910, 6920, 6918, 6914
    6, 6921, 6922, 6923, 6924
    7, 6921, 6925, 6926, 6927
    8, 6921, 6924, 6923, 6928
    9, 6921, 6929, 6930, 6931
   10, 6921, 6925, 6927, 6932
   11, 6921, 6932, 6927, 6933
   12, 6931, 6921, 6934, 6930
   13, 6921, 6926, 6923, 6927
   14, 6921, 6923, 6935, 6928
   15, 6936, 6937, 6938, 6939
   16, 6940, 6941, 6942, 6936
   17, 6943, 6944, 6945, 6946
   18, 6936, 6942, 6923, 6947
   19, 6936, 6948, 6940, 6941
   20, 6937, 6949, 6950, 6951
** ... 103563 like lines cut
*Nset, nset="Edge Seeds-1"
     9,    10,    11,    12,    21,    22,    25,    26,    29,    32,    37,    38,    39,    40,    41,    42
   153,   154,   155,   156,   157,   158,   159,   160,   161,   171,   172,   173,   174,   175,   176,   177
   178,   179,   180,   181,   182,   183,   184,   185,   186,   187,   188,   189,   190,   191,   192,   193
   194,   195,   196,   197,   200,   201,   202,   203,   204,   205,   206,   207,   208,   386,   387,   388
   389,   390,   391,   392,   393,   394,   395,   396,   397,   398,   425,   426,   427,   428,   429,   430
   431,   432,   433,   434,   435,   436,   437,   438,   439,   440,   441,   442,   443,   444,   445,   446
   447,   448,   449,   450,   451,   452,   453,   454,   455,   456,   457,   458,   459,   460,   461,   462
   463,   464,   496,   497,   498,   499,   500,   501,   502,   503,   504,   505,   506,   507,   508,   564
   565,   566,   567,   568,   569,   570,   571,   572,   573,   574,   575,   576,   579,   580,   581,   582
   583,   584,   585,   586,   587,   588,   589,   590,   591,   592,   593,   594,   595,   596,   597,   598
   599,   600,   601,   602,   603,   604,   605,   656,   657,   658,   659,   660,   661,   662,   663,   664
   665,   666,   667,   668,   669,   670,   671,   672,   673,   674,   675,   676,   677,   678,   679,   680
   681,   682,   683,   684,   685,   686,   687,   688,   689,   690,   691,   692,   693,   694,   695,   696
   697,   698,   699,   700,   701,   702,   703,   704,   705,   706,   707,   708,   709,   710,   711,   712
   713,   714,   715,   716,   717,   718,   719,   720,   721,   722,   723,   724,   725,   726,   727,   728
   729,   730,   731,   732,   733,   734,   735,   736,   737,   738,   739,   740,   741,   742,   743,   744
   745,   746,   747,   748,   749,   750,   751,   752,   753,   754,   755,   756,   757,   758,   759,   760
   761,   762,   763,   764,   765,   766,   767,   768,   769,   770,   771,   772,   773,   774,   775,   776
   777,   778,   779,   780,   781,   782,   783,   784,   785,   786,   787,   788,   789,   790,   791,   792
   793,   794,   795,   796,   797,   798,   799,   800,   801,   802,   803,   804,   805,   806,   807,   808
** ... 298 like lines cut
*Elset, elset="Edge Seeds-1"
  40947,  40948,  40949,  40950,  40951,  40952,  40953,  40954,  40955,  40956,  40957,  40958,  40959,  40960,  40961,  40962
  40963,  40964,  40965,  40966,  40967,  40968,  40969,  40970,  40971,  40972,  40973,  40974,  40975,  40976,  40977,  40978
  40979,  40980,  40981,  40982,  40983,  40984,  40985,  40986,  40987,  40988,  40989,  40990,  40991,  40992,  40993,  40994
  40995,  40996,  40997,  40998,  40999,  41000,  41001,  41002,  41003,  41004,  41005,  41006,  41007,  41008,  41009,  41010
  41011,  41012,  41013,  41014,  41015,  41016,  41017,  41018,  41019,  41020,  41021,  41022,  41023,  41024,  41025,  41026
  41027,  41028,  41029,  41030,  41031,  41032,  41033,  41034,  41035,  41036,  41037,  41038,  41039,  41040,  41041,  41042
  41043,  41044,  41045,  41046,  41047,  41048,  41049,  41050,  41051,  41052,  41053,  41054,  41055,  41056,  41057,  41058
  41059,  41060,  41061,  41062,  41063,  41064,  41065,  41066,  41067,  41068,  41069,  41070,  41071,  41072,  41073,  41074
  41075,  41076,  41077,  41078,  41079,  41080,  41081,  41082,  41083,  41084,  41085,  41086,  41087,  41088,  41089,  41090
  41091,  41092,  41093,  41094,  41095,  41096,  41097,  41098,  41099,  41100,  41101,  41102,  41103,  41104,  41105,  41106
  41107,  41108,  41109,  41110,  41111,  41112,  41113,  41114,  41115,  41116,  41117,  41118,  41119,  41120,  41121,  41122
  41123,  41124,  41125,  41126,  41127,  41128,  41129,  41130,  41131,  41132,  41133,  41134,  41135,  41136,  41137,  41138
  41139,  41140,  41141,  41142,  41143,  41144,  41145,  41146,  41147,  41148,  41149,  41150,  41151,  41152,  41153,  41154
  41155,  41156,  41157,  41158,  41159,  41160,  41161,  41162,  41163,  41164,  41165,  41166,  41167,  41168,  41169,  41170
  41171,  41172,  41173,  41174,  41175,  41176,  41177,  41178,  41179,  41180,  41181,  41182,  41183,  41184,  41185,  41186
  41187,  41188,  41189,  41190,  41191,  41192,  41193,  41194,  41195,  41196,  41197,  41198,  41199,  41200,  41201,  41202
  41203,  41204,  41205,  41206,  41207,  41208,  41209,  41210,  41211,  41212,  41213,  41214,  41215,  41216,  41217,  41218
  41219,  41220,  41221,  41222,  41223,  41224,  41225,  41226,  41227,  41228,  41229,  41230,  41231,  41232,  41233,  41234
  41235,  41236,  41237,  41238,  41239,  41240,  41241,  41242,  41243,  41244,  41245,  41246,  41247,  41248,  41249,  41250
  41251,  41252,  41253,  41254,  41255,  41256,  41257,  41258,  41259,  41260,  41261,  41262,  41263,  41264,  41265,  41266
** ... 1386 like lines cut
*Nset, nset=Set-33, generate
     1,  19636,      1
*Elset, elset=Set-33, generate
      1,  103583,       1
*Nset, nset=CMOD1
 480,
*Nset, nset=CMOD2
 370,
** Section: Section-1
*Solid Section, elset=Set-33, material=Material-1
,
*End Part
**  
**
** ASSEMBLY
**
*Assembly, name=Assembly
**  
*Instance, name=main-1, part=main
*End Instance
**  
*Nset, nset=Set-7, instance=main-1
   14,   15,   17,   18,  245,  246,  258,  259,  260,  261,  262,  263,  264,  265,  266,  267
  268,  269,  270,  271,  272,  273,  274,  275,  276,  277,  278,  279,  280,  281,  282,  283
 2088, 2089, 2090, 2091, 2092, 2093, 2094, 2095, 2096, 2097, 2098, 2099, 2100, 2101, 2102, 2103
 2104, 2105, 2106, 2107, 2108, 2109, 2110, 2111
*Elset, elset=Set-7, instance=main-1
 18545, 18806, 18895, 18924, 18926, 19051, 19126, 19283, 19353, 19727, 19758, 19803, 19806, 19936, 19941, 19946
 20094, 20174, 20186, 20227, 20231, 20259, 20277, 20282, 20291, 20305, 20307, 20315, 20322, 20330, 20341, 20347
 20360, 20363, 20366, 20368, 20404, 20419, 20434, 20443, 20453, 20459, 20463, 20471, 20474, 20476, 20480, 20481
 20498, 20499, 20500, 20503, 20508, 20513, 20517, 20522, 20528, 20537, 20557, 20566, 20601, 20604, 20605, 20606
 20611, 20613, 20614, 20616, 20650, 20660, 20662, 20672, 20673, 20765, 20824, 20933, 21024, 21030
*Nset, nset=Set-8, instance=main-1
   13,   16,   19,   20,  256,  257,  293,  294,  295,  296,  297,  298,  299,  300,  301,  302
  303,  304,  305,  306,  307,  308,  309,  310,  311,  312,  313,  314,  315,  316,  317,  318
 2220, 2221, 2222, 2223, 2224, 2225, 2226, 2227, 2228, 2229, 2230, 2231, 2232, 2233, 2234, 2235
 2236, 2237, 2238, 2239, 2240, 2241, 2242, 2243
*Elset, elset=Set-8, instance=main-1
 18455, 18522, 18639, 18640, 18697, 18804, 18841, 18949, 18952, 18956, 18961, 18984, 18996, 19008, 19014, 19042
 19071, 19176, 19380, 19417, 19467, 19515, 19623, 19734, 19740, 19775, 19825, 19887, 19984, 20016, 20030, 20036
 20049, 20147, 20177, 20190, 20194, 20196, 20204, 20250, 20274, 20301, 20304, 20311, 20326, 20327, 20592, 20615
 20706, 20855, 20860, 20879, 20930, 20965, 21010, 21013, 21026, 21032, 21066, 21078, 21095, 21100, 21104, 21110
 21113, 21120, 21123, 21127, 21130, 21133, 21136, 21137, 21139, 21144, 21145, 21151, 21153, 21159
*Nset, nset=Set-9, instance=main-1
    2,    3,   33,   35,   54,   55,   56,   57,   58,   59,   60,   61,   62,   63,   64,   65
  606,  607,  619,  620,  621,  622,  623,  624,  625,  626,  627,  628,  629,  630,  631,  632
 4058, 4059, 4060, 4061, 4062, 4063, 4064, 4065, 4066, 4067, 4068, 4069, 4070, 4071, 4072, 4073
 4074, 4075, 4076, 4077, 4078, 4079, 4080, 4081
*Elset, elset=Set-9, instance=main-1
 38480, 38499, 38513, 38537, 38547, 38632, 38704, 38707, 38749, 38974, 38976, 39016, 39111, 39253, 39254, 39387
 39571, 39607, 39608, 39650, 39760, 39762, 39764, 39827, 39830, 39903, 39923, 39972, 39982, 39995, 39997, 40002
 40020, 40042, 40045, 40046, 40047, 40052, 40054, 40064, 40066, 40077, 40090, 40117, 40136, 40153, 40178, 40179
 40189, 40196, 40197, 40198, 40205, 40208, 40214, 40216, 40227, 40233, 40251, 40262, 40263, 40282, 40283, 40304
 40306, 40309, 40315, 40412, 40427, 40463, 40513, 40566, 40599, 40699, 40709, 40751, 40832, 40930
*Nset, nset=Set-10, instance=main-1
    1,    4,   34,   36,   75,   76,   77,   78,   79,   80,   81,   82,   83,   84,   85,   86
  617,  618,  642,  643,  644,  645,  646,  647,  648,  649,  650,  651,  652,  653,  654,  655
 4190, 4191, 4192, 4193, 4194, 4195, 4196, 4197, 4198, 4199, 4200, 4201, 4202, 4203, 4204, 4205
 4206, 4207, 4208, 4209, 4210, 4211, 4212, 4213
*Elset, elset=Set-10, instance=main-1
 38159, 38414, 38489, 38509, 38523, 38560, 38607, 38757, 38759, 38765, 38909, 38930, 39025, 39106, 39156, 39268
 39296, 39355, 39356, 39513, 39552, 39582, 39583, 39597, 39645, 39651, 39654, 39661, 39667, 39740, 39749, 39771
 39831, 39864, 39869, 39882, 39886, 39899, 39987, 40031, 40075, 40080, 40182, 40183, 40213, 40368, 40393, 40420
 40436, 40509, 40639, 40647, 40708, 40718, 40726, 40733, 40739, 40760, 40770, 40773, 40776, 40782, 40811, 40823
 40845, 40864, 40899, 40902, 40909, 40920, 40922, 40923, 40924, 40926, 40931, 40941, 40942, 40943
*End Assembly
** 
** MATERIALS
** 
*Material, name=Material-1
*Density
7860.,
** 
** BOUNDARY CONDITIONS
** 
** Name: back_left Type: Symmetry/Antisymmetry/Encastre
*Boundary
Set-8, PINNED
** Name: back_right Type: Symmetry/Antisymmetry/Encastre
*Boundary
Set-10, PINNED
** Name: front_left Type: Symmetry/Antisymmetry/Encastre
*Boundary
Set-7, XSYMM
** Name: front_right Type: Symmetry/Antisymmetry/Encastre
*Boundary
Set-9, XSYMM
** ----------------------------------------------------------------
** 
** STEP: Step-1
** 
*Step, name=Step-1, nlgeom=NO
*Static
1., 1., 1e-05, 1.
** 
** OUTPUT REQUESTS
** 
*Restart, write, frequency=0
** 
** FIELD OUTPUT: F-Output-1
** 
*Output, field, variable=PRESELECT
** 
** HISTORY OUTPUT: H-Output-1
** 
*Output, history, variable=PRESELECT
*End Step
